*Heading
** Job name: Job-1 Model name: Model-1
** Generated by: Abaqus/CAE 6.14-1
*Preprint, echo=NO, model=NO, history=NO, contact=NO
**
** PARTS
**
*Part, name=Part-1
*Node
      1,   	0.0,       0.0
      2,    2.5,       0.0
      3,    2.5,       3.0
      4,  	0.0,       2.0
      5,   	0.5,       0.5
      6,    2.0,       0.75
      7,  	1.75,      1.75
      8,    0.65,      1.6
*Element, type=CPS4
1, 1, 2, 6, 5
2, 2, 3, 7, 6
3, 3, 4, 8, 7
4, 4, 1, 5, 8
5, 5, 6, 7, 8
*Elset, elset=Set-1, generate
 1,  5,  1
** Section: Section-1
*Solid Section, elset=Set-1, material=Material-1
1.,
*End Part
**  
**
** ASSEMBLY
**
*Assembly, name=Assembly
**  
*Instance, name=Part-1-1, part=Part-1
*End Instance
**  
*Nset, nset=Set-1, instance=Part-1-1
 1,
*Nset, nset=Set-2, instance=Part-1-1
 2,
*Nset, nset=Set-3, instance=Part-1-1
 3,
*Nset, nset=Set-4, instance=Part-1-1
 4,
*Nset, nset=Set-5, instance=Part-1-1
 5,
*Nset, nset=Set-6, instance=Part-1-1
 6,
*Nset, nset=Set-7, instance=Part-1-1
 7,
*Nset, nset=Set-8, instance=Part-1-1
 8,
*Nset, nset=Set-Displacement, instance=Part-1-1, generate
 1,  8,   1
*Elset, elset=Set-Stress, instance=Part-1-1, generate
 1, 5, 1
*End Assembly
** 
** MATERIALS
** 
*Material, name=Material-1
*Elastic
1000.0, 0.3
** ----------------------------------------------------------------
** 
** STEP: Step-1
** 
*Step, name=Step-1, nlgeom=NO
*Static
1., 1., 1e-05, 1.
** 
** BOUNDARY CONDITIONS
** 
*Boundary
Set-1, 1, 1
Set-1, 2, 2
Set-2, 1, 1, 0.025
Set-2, 2, 2
Set-3, 1, 1, 0.025
Set-3, 2, 2, -0.009
Set-4, 1, 1
Set-4, 2, 2, -0.006
Set-5, 1, 1, 0.005
Set-5, 2, 2, -0.0015
Set-6, 1, 1, 0.02
Set-6, 2, 2, -0.00225
Set-7, 1, 1, 0.0175
Set-7, 2, 2, -0.00525
Set-8, 1, 1, 0.0065
Set-8, 2, 2, -0.0048
** 
** OUTPUT REQUESTS
** 
*Restart, write, frequency=0
** 
** FIELD OUTPUT: F-Output-1
** 
*Output, field, variable=PRESELECT
*NODE PRINT, NSET=Set-Displacement
U,RF,COORD
*EL PRINT, Elset=Set-Stress
E,S

** 
** HISTORY OUTPUT: H-Output-1
** 
*Output, history, variable=PRESELECT
*End Step
